This is new line.
New line.
Adding new line.
New file.
