This is new file for Devops course.
This is second line.
This third line.
New line.
